@<TRIPOS>MOLECULE

107 111 1
SMALL
USER_CHARGES
@<TRIPOS>ATOM
1	C1     0.4242    -0.4354    -4.0991	C.3	1	LIG	-0.0564
2	C2    -0.0408     0.8607    -4.8109	C.3	1	LIG	0.0688
3	C3    -0.3707     1.9853    -3.7963	C.3	1	LIG	-0.0564
4	C4    -1.1794     0.5577    -5.7068	C.2	1	LIG	0.0725
5	N1    -2.4733     0.3742    -5.3548	N.2	1	LIG	-0.2220
6	C5    -3.3408    -0.0271    -6.3281	C.2	1	LIG	0.0404
7	C6    -4.7759    -0.2820    -6.0399	C.3	1	LIG	0.0500
8	N2    -5.1390    -1.2773    -5.0358	N.3	1	LIG	-0.2137
9	C7    -4.1167    -1.9530    -4.2597	C.3	1	LIG	-0.0040
10	C8    -6.4834    -1.5481    -4.8031	C.2	1	LIG	0.2175
11	O1    -6.8235    -2.2919    -3.8517	O.2	1	LIG	-0.2351
12	N3    -7.4651    -1.0004    -5.5882	N.3	1	LIG	-0.2165
13	C9    -8.8948    -1.0910    -5.4594	C.3	1	LIG	0.0902
14	C10    -9.4984    -2.5013    -5.1648	C.3	1	LIG	-0.0159
15	C11    -9.1009    -3.5297    -6.2700	C.3	1	LIG	0.0004
16	N4    -9.5196    -4.9484    -6.0155	N.3	1	LIG	-0.2986
17	C12    -8.7136    -5.6123    -4.9396	C.3	1	LIG	0.0219
18	C13    -9.1523    -7.0819    -4.7307	C.3	1	LIG	0.0595
19	O2    -9.1168    -7.8134    -5.9715	O.3	1	LIG	-0.3786
20	C14    -9.9509    -7.2310    -6.9915	C.3	1	LIG	0.0595
21	C15    -9.5315    -5.7676    -7.2746	C.3	1	LIG	0.0219
22	C16    -9.3581     0.0125    -4.5764	C.2	1	LIG	0.1902
23	O3   -10.2109     0.8154    -5.0293	O.2	1	LIG	-0.2612
24	N5    -8.7816     0.2370    -3.3554	N.3	1	LIG	-0.2447
25	C17    -8.8100     1.4983    -2.6624	C.3	1	LIG	0.0181
26	C18    -7.5513     1.6461    -1.7370	C.3	1	LIG	-0.0355
27	C19    -7.0743     3.1186    -1.5648	C.3	1	LIG	-0.0354
28	C20    -6.0428     3.3409    -0.4199	C.3	1	LIG	0.0204
29	C21    -5.7048     4.8574    -0.2702	C.3	1	LIG	-0.0118
30	C22    -4.7468     5.1340     0.8351	C.2	1	LIG	-0.0543
31	C23    -3.4224     5.5588     0.5696	C.2	1	LIG	-0.0568
32	C24    -2.5228     5.8051     1.6245	C.2	1	LIG	-0.0604
33	C25    -2.9329     5.6258     2.9579	C.2	1	LIG	-0.0616
34	C26    -4.2480     5.2133     3.2373	C.2	1	LIG	-0.0604
35	C27    -5.1461     4.9662     2.1825	C.2	1	LIG	-0.0568
36	N6    -4.8175     2.6274    -0.6619	N.3	1	LIG	-0.2132
37	C28    -4.1770     1.8177     0.2244	C.2	1	LIG	0.1785
38	O4    -4.6777     1.5136     1.3348	O.2	1	LIG	-0.2228
39	O5    -2.9177     1.4056    -0.1089	O.3	1	LIG	-0.1787
40	C29    -2.0453     0.6320     0.7258	C.3	1	LIG	0.0937
41	C30    -0.6723     0.6734     0.2036	C.2	1	LIG	0.0677
42	C31     0.1480    -0.3967    -0.1817	C.2	1	LIG	0.0435
43	N7     1.4057    -0.0827    -0.5975	N.2	1	LIG	-0.2176
44	C32     1.7256     1.2289    -0.5884	C.2	1	LIG	0.0714
45	S1     0.3207     2.1040    -0.0081	S.3	1	LIG	-0.1685
46	C33   -10.2143     1.7943    -1.9604	C.3	1	LIG	-0.0119
47	C34   -10.4650     0.9726    -0.7407	C.2	1	LIG	-0.0543
48	C35   -10.8505    -0.3844    -0.8564	C.2	1	LIG	-0.0568
49	C36   -11.0811    -1.1694     0.2905	C.2	1	LIG	-0.0604
50	C37   -10.9284    -0.6075     1.5707	C.2	1	LIG	-0.0616
51	C38   -10.5567     0.7427     1.7025	C.2	1	LIG	-0.0604
52	C39   -10.3312     1.5279     0.5561	C.2	1	LIG	-0.0568
53	C40    -2.7722    -0.1862    -7.6022	C.2	1	LIG	0.0442
54	S2    -1.0783     0.2183    -7.4271	S.3	1	LIG	-0.1926
55	H1     0.3738    -0.2950    -3.0194	H	1	LIG	0.0237
56	H2    -0.2249    -1.2619    -4.3887	H	1	LIG	0.0237
57	H3     1.4506    -0.6608    -4.3887	H	1	LIG	0.0237
58	H4     0.7482     1.2337    -5.4640	H	1	LIG	0.0371
59	H5    -0.2587     1.6034    -2.7815	H	1	LIG	0.0237
60	H6     0.3113     2.8221    -3.9470	H	1	LIG	0.0237
61	H7    -1.3967     2.3210    -3.9470	H	1	LIG	0.0237
62	H8    -5.1536     0.6569    -5.6351	H	1	LIG	0.0503
63	H9    -5.1844    -0.6781    -6.9696	H	1	LIG	0.0503
64	H10    -4.3193    -1.8191    -3.1971	H	1	LIG	0.0399
65	H11    -4.1221    -3.0163    -4.4994	H	1	LIG	0.0399
66	H12    -3.1405    -1.5315    -4.4994	H	1	LIG	0.0399
67	H13    -7.0885    -0.4638    -6.3566	H	1	LIG	0.1332
68	H14    -9.2446    -0.8825    -6.4705	H	1	LIG	0.0567
69	H15    -9.0345    -2.8478    -4.2413	H	1	LIG	0.0301
70	H16   -10.5812    -2.3909    -5.2228	H	1	LIG	0.0301
71	H17    -9.6457    -3.2380    -7.1679	H	1	LIG	0.0431
72	H18    -8.0114    -3.5610    -6.2796	H	1	LIG	0.0431
73	H19    -7.6885    -5.6365    -5.3092	H	1	LIG	0.0454
74	H20    -8.9489    -5.0770    -4.0197	H	1	LIG	0.0454
75	H21    -8.4086    -7.5628    -4.0953	H	1	LIG	0.0579
76	H22   -10.2010    -7.0758    -4.4336	H	1	LIG	0.0579
77	H23    -9.7517    -7.8139    -7.8908	H	1	LIG	0.0579
78	H24   -10.9537    -7.2129    -6.5648	H	1	LIG	0.0579
79	H25    -8.4984    -5.7951    -7.6210	H	1	LIG	0.0454
80	H26   -10.3064    -5.3319    -7.9053	H	1	LIG	0.0454
81	H27    -8.3156    -0.5616    -2.9489	H	1	LIG	0.1313
82	H28    -8.7075     2.2129    -3.4791	H	1	LIG	0.0472
83	H29    -7.8661     1.3192    -0.7460	H	1	LIG	0.0283
84	H30    -6.7391     1.1299    -2.2487	H	1	LIG	0.0283
85	H31    -6.5479     3.3667    -2.4865	H	1	LIG	0.0283
86	H32    -7.9608     3.6826    -1.2748	H	1	LIG	0.0283
87	H33    -6.4379     2.9092     0.4997	H	1	LIG	0.0473
88	H34    -5.1838     5.1572    -1.1795	H	1	LIG	0.0332
89	H35    -6.6271     5.3604     0.0205	H	1	LIG	0.0332
90	H36    -3.0914     5.6979    -0.4595	H	1	LIG	0.0625
91	H37    -1.5067     6.1353     1.4084	H	1	LIG	0.0622
92	H38    -2.2327     5.8063     3.7736	H	1	LIG	0.0622
93	H39    -4.5709     5.0853     4.2704	H	1	LIG	0.0622
94	H40    -6.1611     4.6415     2.4114	H	1	LIG	0.0625
95	H41    -4.3541     2.7035    -1.5560	H	1	LIG	0.1337
96	H42    -2.0333     1.1293     1.6957	H	1	LIG	0.0634
97	H43    -2.3861    -0.4003     0.6467	H	1	LIG	0.0634
98	H44    -0.1804    -1.4358    -0.1590	H	1	LIG	0.0852
99	H45     2.7317     1.4836    -0.9216	H	1	LIG	0.0958
100	H46   -10.1807     2.8209    -1.5956	H	1	LIG	0.0332
101	H47   -10.9931     1.4896    -2.6595	H	1	LIG	0.0332
102	H48   -10.9716    -0.8315    -1.8431	H	1	LIG	0.0625
103	H49   -11.3782    -2.2130     0.1872	H	1	LIG	0.0622
104	H50   -11.0976    -1.2168     2.4585	H	1	LIG	0.0622
105	H51   -10.4435     1.1810     2.6941	H	1	LIG	0.0622
106	H52   -10.0505     2.5746     0.6736	H	1	LIG	0.0625
107	H53    -3.4113    -0.5064    -8.4252	H	1	LIG	0.0759
@<TRIPOS>BOND
1	1	2	1
2	2	3	1
3	2	4	1
4	4	5	2
5	5	6	1
6	6	7	1
7	7	8	1
8	8	9	1
9	8	10	1
10	10	11	2
11	10	12	1
12	12	13	1
13	13	14	1
14	14	15	1
15	15	16	1
16	16	17	1
17	17	18	1
18	18	19	1
19	19	20	1
20	20	21	1
21	16	21	1
22	13	22	1
23	22	23	2
24	22	24	1
25	24	25	1
26	25	26	1
27	26	27	1
28	27	28	1
29	28	29	1
30	29	30	1
31	30	31	2
32	31	32	1
33	32	33	2
34	33	34	1
35	34	35	2
36	30	35	1
37	28	36	1
38	36	37	1
39	37	38	2
40	37	39	1
41	39	40	1
42	40	41	1
43	41	42	2
44	42	43	1
45	43	44	2
46	44	45	1
47	41	45	1
48	25	46	1
49	46	47	1
50	47	48	2
51	48	49	1
52	49	50	2
53	50	51	1
54	51	52	2
55	47	52	1
56	6	53	2
57	53	54	1
58	4	54	1
59	1	55	1
60	1	56	1
61	1	57	1
62	2	58	1
63	3	59	1
64	3	60	1
65	3	61	1
66	7	62	1
67	7	63	1
68	9	64	1
69	9	65	1
70	9	66	1
71	12	67	1
72	13	68	1
73	14	69	1
74	14	70	1
75	15	71	1
76	15	72	1
77	17	73	1
78	17	74	1
79	18	75	1
80	18	76	1
81	20	77	1
82	20	78	1
83	21	79	1
84	21	80	1
85	24	81	1
86	25	82	1
87	26	83	1
88	26	84	1
89	27	85	1
90	27	86	1
91	28	87	1
92	29	88	1
93	29	89	1
94	31	90	1
95	32	91	1
96	33	92	1
97	34	93	1
98	35	94	1
99	36	95	1
100	40	96	1
101	40	97	1
102	42	98	1
103	44	99	1
104	46	100	1
105	46	101	1
106	48	102	1
107	49	103	1
108	50	104	1
109	51	105	1
110	52	106	1
111	53	107	1
@<TRIPOS>SUBSTRUCTURE
1	LIG	1
